98723
  -OEChem-07022303303D

 21 21  0     0  0  0  0  0  0999 V2000
   -2.8155   -0.2778   -0.1317 O   0  0  0  0  0  0  0  0  0  0  0  0
    1.7694    1.5104   -0.0877 O   0  0  0  0  0  0  0  0  0  0  0  0
   -0.0562    0.1265    0.2988 N   0  0  0  0  0  0  0  0  0  0  0  0
   -0.6723   -1.1828    0.5520 C   0  0  0  0  0  0  0  0  0  0  0  0
   -1.0000    1.2425    0.3864 C   0  0  0  0  0  0  0  0  0  0  0  0
   -1.9023   -1.3609   -0.3293 C   0  0  0  0  0  0  0  0  0  0  0  0
   -2.2178    0.9720   -0.4870 C   0  0  0  0  0  0  0  0  0  0  0  0
    1.2979    0.3913    0.1231 C   0  0  0  0  0  0  0  0  0  0  0  0
    2.2406   -0.7423    0.1956 C   0  0  0  0  0  0  0  0  0  0  0  0
    3.3562   -0.6788   -0.5201 C   0  0  0  0  0  0  0  0  0  0  0  0
   -0.9533   -1.1979    1.6113 H   0  0  0  0  0  0  0  0  0  0  0  0
    0.0233   -2.0030    0.3681 H   0  0  0  0  0  0  0  0  0  0  0  0
   -0.5277    2.1867    0.0996 H   0  0  0  0  0  0  0  0  0  0  0  0
   -1.2975    1.3179    1.4390 H   0  0  0  0  0  0  0  0  0  0  0  0
   -1.6300   -1.4139   -1.3902 H   0  0  0  0  0  0  0  0  0  0  0  0
   -2.4205   -2.2890   -0.0689 H   0  0  0  0  0  0  0  0  0  0  0  0
   -2.9670    1.7563   -0.3412 H   0  0  0  0  0  0  0  0  0  0  0  0
   -1.9513    0.9549   -1.5505 H   0  0  0  0  0  0  0  0  0  0  0  0
    2.0405   -1.5889    0.8385 H   0  0  0  0  0  0  0  0  0  0  0  0
    4.0745   -1.4911   -0.4744 H   0  0  0  0  0  0  0  0  0  0  0  0
    3.5966    0.1536   -1.1725 H   0  0  0  0  0  0  0  0  0  0  0  0
  1  6  1  0  0  0  0
  1  7  1  0  0  0  0
  2  8  2  0  0  0  0
  3  4  1  0  0  0  0
  3  5  1  0  0  0  0
  3  8  1  0  0  0  0
  4  6  1  0  0  0  0
  4 11  1  0  0  0  0
  4 12  1  0  0  0  0
  5  7  1  0  0  0  0
  5 13  1  0  0  0  0
  5 14  1  0  0  0  0
  6 15  1  0  0  0  0
  6 16  1  0  0  0  0
  7 17  1  0  0  0  0
  7 18  1  0  0  0  0
  8  9  1  0  0  0  0
  9 10  2  0  0  0  0
  9 19  1  0  0  0  0
 10 20  1  0  0  0  0
 10 21  1  0  0  0  0
M  END
> <PUBCHEM_COMPOUND_CID>
98723

> <PUBCHEM_CONFORMER_RMSD>
0.6

> <PUBCHEM_CONFORMER_DIVERSEORDER>
1
2
5
3
4

> <PUBCHEM_MMFF94_PARTIAL_CHARGES>
13
1 -0.56
10 -0.3
19 0.15
2 -0.57
20 0.15
21 0.15
3 -0.66
4 0.3
5 0.3
6 0.28
7 0.28
8 0.62
9 -0.14

> <PUBCHEM_EFFECTIVE_ROTOR_COUNT>
3.2

> <PUBCHEM_PHARMACOPHORE_FEATURES>
4
1 1 acceptor
1 10 hydrophobe
1 2 acceptor
6 1 3 4 5 6 7 rings

> <PUBCHEM_HEAVY_ATOM_COUNT>
10

> <PUBCHEM_ATOM_DEF_STEREO_COUNT>
0

> <PUBCHEM_ATOM_UDEF_STEREO_COUNT>
0

> <PUBCHEM_BOND_DEF_STEREO_COUNT>
0

> <PUBCHEM_BOND_UDEF_STEREO_COUNT>
0

> <PUBCHEM_ISOTOPIC_ATOM_COUNT>
0

> <PUBCHEM_COMPONENT_COUNT>
1

> <PUBCHEM_CACTVS_TAUTO_COUNT>
1

> <PUBCHEM_CONFORMER_ID>
000181A300000001

> <PUBCHEM_MMFF94_ENERGY>
21.1188

> <PUBCHEM_FEATURE_SELFOVERLAP>
20.297

> <PUBCHEM_SHAPE_FINGERPRINT>
12716758 59 18412255138651879939
12897270 3 18408882962053637710
12932764 1 17967526857113205064
14128692 85 18341614840908901620
14325111 11 18409165497882106096
15775835 57 17968378922790078757
16945 1 18338792321382465331
19973954 147 18337391642295112028
20201158 50 18272089370504957758
20653085 51 17967535662002091605
23552423 10 18261671579351522154
2748010 2 18265329688896799827
29004967 10 16128374886871648547
369184 2 14333405623256332327
5084963 1 18412542102465042953

> <PUBCHEM_SHAPE_MULTIPOLES>
189.08
4.49
1.52
0.72
1.91
0.09
0
-0.67
-0.93
-0.34
0.01
-0.01
-0.04
0.06

> <PUBCHEM_SHAPE_SELFOVERLAP>
371.437

> <PUBCHEM_SHAPE_VOLUME>
112.8

> <PUBCHEM_COORDINATE_TYPE>
2
5
10

$$$$
