6438340
  -OEChem-07022302243D

 53 55  0     1  0  0  0  0  0999 V2000
    2.5153    0.6708   -0.7709 N   0  0  2  0  0  0  0  0  0  0  0  0
    4.9302    0.6380   -0.4507 C   0  0  0  0  0  0  0  0  0  0  0  0
    5.4754    1.8160    0.3021 C   0  0  0  0  0  0  0  0  0  0  0  0
    6.1184    0.4681    0.4497 C   0  0  0  0  0  0  0  0  0  0  0  0
    3.6159    0.0556   -0.0428 C   0  0  0  0  0  0  0  0  0  0  0  0
    1.2517    0.4835   -0.0210 C   0  0  1  0  0  0  0  0  0  0  0  0
    1.4029    1.2501    1.3328 C   0  0  0  0  0  0  0  0  0  0  0  0
    0.1462    1.1661   -0.8918 C   0  0  0  0  0  0  0  0  0  0  0  0
    0.9206   -1.0162    0.1051 C   0  0  0  0  0  0  0  0  0  0  0  0
    2.3846    0.1035   -2.1053 C   0  0  0  0  0  0  0  0  0  0  0  0
    1.7315    2.7391    1.2233 C   0  0  0  0  0  0  0  0  0  0  0  0
   -1.2395    1.1448   -0.2956 C   0  0  0  0  0  0  0  0  0  0  0  0
    0.2377   -1.6682   -0.9216 C   0  0  0  0  0  0  0  0  0  0  0  0
    1.3041   -1.7219    1.2457 C   0  0  0  0  0  0  0  0  0  0  0  0
   -0.0619   -3.0258   -0.8078 C   0  0  0  0  0  0  0  0  0  0  0  0
    1.0045   -3.0794    1.3593 C   0  0  0  0  0  0  0  0  0  0  0  0
   -2.3056    0.6320   -0.9297 C   0  0  0  0  0  0  0  0  0  0  0  0
    0.3215   -3.7313    0.3325 C   0  0  0  0  0  0  0  0  0  0  0  0
   -3.6676    0.5707   -0.3767 C   0  0  0  0  0  0  0  0  0  0  0  0
   -3.8661    0.6670    1.0007 C   0  0  0  0  0  0  0  0  0  0  0  0
   -4.7606    0.4164   -1.2296 C   0  0  0  0  0  0  0  0  0  0  0  0
   -5.1573    0.6085    1.5252 C   0  0  0  0  0  0  0  0  0  0  0  0
   -6.0518    0.3583   -0.7051 C   0  0  0  0  0  0  0  0  0  0  0  0
   -6.2500    0.4544    0.6724 C   0  0  0  0  0  0  0  0  0  0  0  0
    5.1354    0.5678   -1.5114 H   0  0  0  0  0  0  0  0  0  0  0  0
    4.9277    2.2007    1.1531 H   0  0  0  0  0  0  0  0  0  0  0  0
    6.0080    2.5708   -0.2634 H   0  0  0  0  0  0  0  0  0  0  0  0
    7.0860    0.3188   -0.0139 H   0  0  0  0  0  0  0  0  0  0  0  0
    5.9905   -0.0514    1.3913 H   0  0  0  0  0  0  0  0  0  0  0  0
    3.6653   -1.0255   -0.2332 H   0  0  0  0  0  0  0  0  0  0  0  0
    3.5730    0.1497    1.0411 H   0  0  0  0  0  0  0  0  0  0  0  0
    0.4621    1.1634    1.8932 H   0  0  0  0  0  0  0  0  0  0  0  0
    2.1271    0.8149    2.0248 H   0  0  0  0  0  0  0  0  0  0  0  0
    0.4036    2.2230   -1.0473 H   0  0  0  0  0  0  0  0  0  0  0  0
    0.0355    0.7858   -1.9081 H   0  0  0  0  0  0  0  0  0  0  0  0
    2.2620   -0.9810   -2.1570 H   0  0  0  0  0  0  0  0  0  0  0  0
    1.6792    0.6066   -2.7686 H   0  0  0  0  0  0  0  0  0  0  0  0
    3.3255    0.2786   -2.6444 H   0  0  0  0  0  0  0  0  0  0  0  0
    0.9017    3.3072    0.7937 H   0  0  0  0  0  0  0  0  0  0  0  0
    1.9095    3.1486    2.2238 H   0  0  0  0  0  0  0  0  0  0  0  0
    2.6281    2.9270    0.6281 H   0  0  0  0  0  0  0  0  0  0  0  0
   -1.3459    1.6167    0.6753 H   0  0  0  0  0  0  0  0  0  0  0  0
   -0.0695   -1.1978   -1.8469 H   0  0  0  0  0  0  0  0  0  0  0  0
    1.8401   -1.2608    2.0669 H   0  0  0  0  0  0  0  0  0  0  0  0
   -0.5886   -3.5358   -1.6092 H   0  0  0  0  0  0  0  0  0  0  0  0
    1.3042   -3.6299    2.2464 H   0  0  0  0  0  0  0  0  0  0  0  0
   -2.1870    0.2114   -1.9255 H   0  0  0  0  0  0  0  0  0  0  0  0
    0.0897   -4.7887    0.4204 H   0  0  0  0  0  0  0  0  0  0  0  0
   -3.0446    0.7657    1.7042 H   0  0  0  0  0  0  0  0  0  0  0  0
   -4.6249    0.3409   -2.3058 H   0  0  0  0  0  0  0  0  0  0  0  0
   -5.3120    0.6781    2.5980 H   0  0  0  0  0  0  0  0  0  0  0  0
   -6.9030    0.2381   -1.3689 H   0  0  0  0  0  0  0  0  0  0  0  0
   -7.2553    0.4078    1.0808 H   0  0  0  0  0  0  0  0  0  0  0  0
  1  5  1  0  0  0  0
  1  6  1  0  0  0  0
  1 10  1  0  0  0  0
  2  3  1  0  0  0  0
  2  4  1  0  0  0  0
  2  5  1  0  0  0  0
  2 25  1  0  0  0  0
  3  4  1  0  0  0  0
  3 26  1  0  0  0  0
  3 27  1  0  0  0  0
  4 28  1  0  0  0  0
  4 29  1  0  0  0  0
  5 30  1  0  0  0  0
  5 31  1  0  0  0  0
  6  7  1  0  0  0  0
  6  8  1  0  0  0  0
  6  9  1  0  0  0  0
  7 11  1  0  0  0  0
  7 32  1  0  0  0  0
  7 33  1  0  0  0  0
  8 12  1  0  0  0  0
  8 34  1  0  0  0  0
  8 35  1  0  0  0  0
  9 13  2  0  0  0  0
  9 14  1  0  0  0  0
 10 36  1  0  0  0  0
 10 37  1  0  0  0  0
 10 38  1  0  0  0  0
 11 39  1  0  0  0  0
 11 40  1  0  0  0  0
 11 41  1  0  0  0  0
 12 17  2  0  0  0  0
 12 42  1  0  0  0  0
 13 15  1  0  0  0  0
 13 43  1  0  0  0  0
 14 16  2  0  0  0  0
 14 44  1  0  0  0  0
 15 18  2  0  0  0  0
 15 45  1  0  0  0  0
 16 18  1  0  0  0  0
 16 46  1  0  0  0  0
 17 19  1  0  0  0  0
 17 47  1  0  0  0  0
 18 48  1  0  0  0  0
 19 20  2  0  0  0  0
 19 21  1  0  0  0  0
 20 22  1  0  0  0  0
 20 49  1  0  0  0  0
 21 23  2  0  0  0  0
 21 50  1  0  0  0  0
 22 24  2  0  0  0  0
 22 51  1  0  0  0  0
 23 24  1  0  0  0  0
 23 52  1  0  0  0  0
 24 53  1  0  0  0  0
M  END
> <PUBCHEM_COMPOUND_CID>
6438340

> <PUBCHEM_CONFORMER_RMSD>
0.8

> <PUBCHEM_CONFORMER_DIVERSEORDER>
1
25
26
24
18
3
14
9
8
20
16
12
4
21
19
15
7
13
11
6
23
17
10
2
22
5

> <PUBCHEM_MMFF94_PARTIAL_CHARGES>
39
1 -0.81
10 0.27
12 -0.29
13 -0.15
14 -0.15
15 -0.15
16 -0.15
17 -0.18
18 -0.15
19 0.03
2 -0.19
20 -0.15
21 -0.15
22 -0.15
23 -0.15
24 -0.15
25 0.1
26 0.1
27 0.1
28 0.1
29 0.1
3 -0.2
4 -0.2
42 0.15
43 0.15
44 0.15
45 0.15
46 0.15
47 0.15
48 0.15
49 0.15
5 0.37
50 0.15
51 0.15
52 0.15
53 0.15
6 0.41
8 0.14
9 -0.14

> <PUBCHEM_EFFECTIVE_ROTOR_COUNT>
8.6

> <PUBCHEM_PHARMACOPHORE_FEATURES>
4
1 1 cation
1 11 hydrophobe
6 19 20 21 22 23 24 rings
6 9 13 14 15 16 18 rings

> <PUBCHEM_HEAVY_ATOM_COUNT>
24

> <PUBCHEM_ATOM_DEF_STEREO_COUNT>
0

> <PUBCHEM_ATOM_UDEF_STEREO_COUNT>
1

> <PUBCHEM_BOND_DEF_STEREO_COUNT>
1

> <PUBCHEM_BOND_UDEF_STEREO_COUNT>
0

> <PUBCHEM_ISOTOPIC_ATOM_COUNT>
0

> <PUBCHEM_COMPONENT_COUNT>
1

> <PUBCHEM_CACTVS_TAUTO_COUNT>
1

> <PUBCHEM_CONFORMER_ID>
00623DC400000001

> <PUBCHEM_MMFF94_ENERGY>
93.6492

> <PUBCHEM_FEATURE_SELFOVERLAP>
20.297

> <PUBCHEM_SHAPE_FINGERPRINT>
10366900 7 18410855456572069417
10906281 52 17916883429512431140
1100329 8 18338233902846803804
11421498 54 17632303315657278553
11488393 25 18119528743564642762
11578080 2 18050575341936103944
12035758 1 18340203094018037248
12236239 1 17275107215099202161
12293681 4 17703799153394747888
12592029 89 17895195468048529664
12596602 18 18060706061653325697
12597179 24 18272657870057513230
13140716 1 18264495164304420861
13533116 47 18201720601575523526
13631057 29 18199461242509017647
14787075 74 18131915961885366624
14790565 3 18411984658903126232
14863182 85 18114191786931822134
15048467 5 15267341821245113056
15849732 13 17386009481758085532
20197701 30 18261107470184309246
20567600 347 18334019354354852394
20645477 70 18116144485977225415
21054139 6 18339917221153109943
21344244 181 18131083605961341902
21421861 104 18052267197882474609
21521721 280 18410015463694940872
22224240 67 18409729586439548409
22956985 138 17315909967120984354
23558518 356 17907852160564098829
23559900 14 17314227761880380103
25222932 49 16226622904540722249
3178227 256 18336553784612783617
3383291 50 18267021666512439002
4258327 124 17896618361103423100
4340502 62 18335139791316151398
465052 167 16443350870911552820
474229 33 18333450949676524332
5486654 2 18410015455242000348
59755656 520 18341608243617920702
6669772 16 18411984637844943566
81228 2 17614267188591903158
9999458 23 18334289903151079084

> <PUBCHEM_SHAPE_MULTIPOLES>
488.93
12.64
3.04
1.51
8.91
3.56
-0.06
-7.44
1
-2.05
0.92
0.32
0
-0.05

> <PUBCHEM_SHAPE_SELFOVERLAP>
1025.185

> <PUBCHEM_SHAPE_VOLUME>
275.5

> <PUBCHEM_COORDINATE_TYPE>
2
5
10

$$$$
